Version 4
SHEET 1 1052 680
WIRE -336 0 -544 0
WIRE -304 0 -336 0
WIRE 240 0 -16 0
WIRE 416 0 240 0
WIRE 656 0 416 0
WIRE 752 0 656 0
WIRE -544 16 -544 0
WIRE 240 16 240 0
WIRE 416 16 416 0
WIRE 656 16 656 0
WIRE 752 16 752 0
WIRE -336 96 -336 0
WIRE -304 96 -336 96
WIRE 16 96 -16 96
WIRE 240 96 240 80
WIRE -544 112 -544 96
WIRE 656 112 656 80
WIRE 752 112 752 96
WIRE 16 128 16 96
WIRE 240 128 240 96
WIRE 240 128 16 128
WIRE 416 128 416 80
WIRE 416 128 240 128
WIRE 240 144 240 128
WIRE -160 192 -160 160
WIRE 240 272 240 224
FLAG -544 112 0
FLAG 656 112 0
FLAG 752 112 0
FLAG -160 192 0
FLAG -544 0 IN
FLAG 752 0 OUT
FLAG 240 272 0
SYMBOL voltage -544 0 R0
WINDOW 123 0 0 Left 0
WINDOW 39 0 0 Left 0
SYMATTR InstName V1
SYMATTR Value 5
SYMBOL cap 640 16 R0
SYMATTR InstName C
SYMATTR Value 0.5µ
SYMBOL res 736 0 R0
SYMATTR InstName Rload1
SYMATTR Value {R}
SYMBOL PowerProducts\\LT3010 -160 48 R0
SYMATTR InstName U1
SYMBOL res 224 0 R0
WINDOW 3 51 84 Left 2
SYMATTR Value 41.02k
SYMATTR InstName R1
SYMBOL res 224 128 R0
SYMATTR InstName R2
SYMATTR Value 100k
SYMBOL cap 400 16 R0
SYMATTR InstName C1
SYMATTR Value 0.1µ
TEXT 0 200 Left 2 !.tran 1 startup
TEXT 536 184 Left 2 !.step param R list 72 300 750 1.1k 1.4k 1.8k
