Version 4
SHEET 1 1208 680
WIRE 864 -128 816 -128
WIRE 1024 -128 944 -128
WIRE 1088 -128 1024 -128
WIRE 1088 -96 1088 -128
WIRE 816 0 816 -128
WIRE 864 0 816 0
WIRE 1024 0 1024 -128
WIRE 1024 0 912 0
WIRE 0 48 -208 48
WIRE 32 48 0 48
WIRE 576 48 320 48
WIRE 752 48 576 48
WIRE 848 48 752 48
WIRE 992 48 928 48
WIRE 1088 48 992 48
WIRE -208 64 -208 48
WIRE 576 64 576 48
WIRE 752 64 752 48
WIRE 992 64 992 48
WIRE 1088 64 1088 48
WIRE 0 144 0 48
WIRE 32 144 0 144
WIRE 352 144 320 144
WIRE 576 144 576 128
WIRE -208 160 -208 144
WIRE 992 160 992 128
WIRE 1088 160 1088 144
WIRE 352 176 352 144
WIRE 576 176 576 144
WIRE 576 176 352 176
WIRE 752 176 752 128
WIRE 752 176 576 176
WIRE 576 192 576 176
WIRE 176 240 176 208
WIRE 576 320 576 272
FLAG -208 160 0
FLAG 992 160 0
FLAG 1088 160 0
FLAG 176 240 0
FLAG -208 48 IN
FLAG 1088 48 OUT
FLAG 576 320 0
FLAG 1088 -96 0
SYMBOL voltage -208 48 R0
WINDOW 123 0 0 Left 0
WINDOW 39 0 0 Left 0
SYMATTR InstName V1
SYMATTR Value 5
SYMBOL cap 976 64 R0
SYMATTR InstName C
SYMATTR Value 0.5µ
SYMBOL res 1072 48 R0
SYMATTR InstName Rload
SYMATTR Value 72
SYMBOL PowerProducts\\LT3010 176 96 R0
SYMATTR InstName U1
SYMBOL sw 944 48 R90
SYMATTR InstName S1
SYMBOL voltage 848 -128 R270
WINDOW 123 0 0 Left 0
WINDOW 39 0 0 Left 0
SYMATTR InstName V2
SYMATTR Value PWL(0 3 1.5 3 1.5001 -3)
SYMBOL res 560 48 R0
WINDOW 3 51 84 Left 2
SYMATTR Value 41.02k
SYMATTR InstName R2
SYMBOL res 560 176 R0
SYMATTR InstName R1
SYMATTR Value 100k
SYMBOL cap 736 64 R0
SYMATTR InstName C1
SYMATTR Value 0.1µ
TEXT 336 248 Left 2 !.tran 3 startup
